Version 4
SHEET 1 880 680
SYMBOL Opamps\\LT1056S8 176 80 R0
SYMATTR InstName U1
SYMBOL Opamps\\LT1056S8 368 80 R0
SYMATTR InstName U2
SYMBOL res 192 192 R0
SYMATTR InstName R1
